.subckt AD3552R_INL code INL
E1 INL 0 code 0 table = (0,0.000000), (1,-0.026886), (2,0.234685), (3,0.117687), (4,0.037389), (5,-0.148356), (6,0.223295), (7,0.079823), (8,0.101246), (9,-0.050122), (10,0.386562), (11,0.218006), (12,0.181834), (13,-0.019703), (14,0.256263), (15,0.131376), (16,0.022738), (17,-0.130020), (18,0.205864), (19,0.054032), (20,-0.017443), (21,-0.192969), (22,0.173579), (23,0.004559), (24,0.062675), (25,-0.088229), (26,0.316865), (27,0.166430), (28,0.123752), (29,-0.046664), (30,0.184249), (31,0.038918), (32,-0.024662), (33,-0.190425), (34,0.352157), (35,0.209618), (36,0.131173), (37,0.007212), (38,0.392332), (39,0.224245), (40,0.069158), (41,-0.047840), (42,0.361437), (43,0.153401), (44,0.126515), (45,-0.029963), (46,0.237644), (47,0.084886), (48,0.029666), (49,-0.113806), (50,0.400912), (51,0.281127), (52,0.205006), (53,0.055961), (54,0.406247), (55,0.239550), (56,0.055202), (57,-0.130073), (58,0.301965), (59,0.148274), (60,0.084232), (61,-0.061564), (62,0.197214), (63,0.059315), (64,-0.023306), (65,-0.188613), (66,0.370700), (67,0.219332), (68,0.175258), (69,0.029926), (70,0.404833), (71,0.224668), (72,0.016162), (73,-0.160284), (74,0.271748), (75,0.105984), (76,0.057734), (77,-0.115469), (78,0.156321), (79,0.020745), (80,-0.036335), (81,-0.203495), (82,0.329337), (83,0.214199), (84,0.126932), (85,-0.024436), (86,0.336996), (87,0.198170), (88,0.002676), (89,-0.125931), (90,0.261512), (91,0.134758), (92,0.027053), (93,-0.105267), (94,0.152121), (95,-0.027118), (96,-0.063760), (97,-0.199799), (98,0.324674), (99,0.176092), (100,0.116226), (101,-0.058366), (102,0.330009), (103,0.144734), (104,-0.077704), (105,0.208945), (106,0.232691), (107,0.053922), (108,0.006134), (109,-0.184250), (110,0.073601), (111,-0.031788), (112,-0.107440), (113,0.134150), (114,0.293993), (115,0.153777), (116,0.090198), (117,0.039624), (118,0.326736), (119,0.130315), (120,0.024000), (121,-0.100894), (122,0.289342), (123,0.133327), (124,0.078107), (125,-0.087193), (126,0.185054), (127,0.040655), (128,-0.090738), (129,-0.221205), (130,0.353894), (131,0.211818), (132,0.164958), (133,0.033101), (134,0.397782), (135,0.254310), (136,0.112698), (137,-0.069790), (138,0.309756), (139,0.173717), (140,0.096205), (141,-0.070028), (142,0.185037), (143,0.044814), (144,-0.025265), (145,-0.157591), (146,0.380351), (147,0.215514), (148,0.182592), (149,0.017749), (150,0.385686), (151,0.223173), (152,-0.010874), (153,-0.084210), (154,0.163886), (155,0.180199), (156,0.073427), (157,0.043754), (158,-0.152209), (159,0.118647), (160,-0.040617), (161,-0.100013), (162,0.109529), (163,0.287951), (164,0.134260), (165,0.069754), (166,-0.000325), (167,0.264489), (168,0.046703), (169,-0.043820), (170,0.218214), (171,0.228491), (172,0.073867), (173,0.041877), (174,-0.146654), (175,0.111661), (176,-0.028092), (177,-0.065660), (178,0.181045), (179,0.305585), (180,0.156071), (181,0.084132), (182,-0.006385), (183,0.286300), (184,-0.015098), (185,-0.071708), (186,0.207508), (187,0.191310), (188,0.027864), (189,-0.036642), (190,-0.187084), (191,0.105138), (192,-0.075954), (193,-0.146040), (194,0.113208), (195,0.254936), (196,0.105421), (197,0.038592), (198,-0.032883), (199,0.243546), (200,0.022968), (201,0.004911), (202,0.261372), (203,0.303233), (204,0.137927), (205,0.123119), (206,-0.069125), (207,0.193372), (208,0.057796), (209,0.009082), (210,0.212588), (211,0.352920), (212,0.186224), (213,0.131473), (214,0.129672), (215,0.379627), (216,-0.043936), (217,-0.088937), (218,0.151725), (219,0.132278), (220,-0.002371), (221,-0.068273), (222,-0.195954), (223,0.081872), (224,-0.089934), (225,-0.140508), (226,0.082973), (227,0.213086), (228,0.039890), (229,0.040411), (230,-0.052435), (231,0.265340), (232,0.096784), (233,0.033204), (234,0.267831), (235,0.291577), (236,0.095156), (237,0.061764), (238,-0.126297), (239,0.156175), (240,0.012233), (241,-0.023939), (242,0.229736), (243,0.375177), (244,0.186183), (245,0.141188), (246,0.080859), (247,0.357751), (248,0.186878), (249,0.133518), (250,0.373254), (251,0.376099), (252,0.202433), (253,0.158358), (254,-0.036672), (255,0.268561), (256,0.087926), (257,0.030852), (258,0.278948), (259,0.440188), (260,0.286033), (261,0.208052), (262,0.142613), (263,0.429731), (264,0.084201), (265,0.025731), (266,0.264540), (267,0.290609), (268,0.134595), (269,0.092381), (270,-0.114722), (271,0.171926), (272,0.006156), (273,-0.030943), (274,0.206001), (275,0.371423), (276,0.183819), (277,0.145324), (278,0.075245), (279,0.351211), (280,0.258365), (281,0.093528), (282,0.119133), (283,0.334249), (284,0.292040), (285,0.124411), (286,0.391554), (287,0.213242), (288,0.164065), (289,0.000154), (290,0.187869), (291,0.429928), (292,0.372848), (293,0.199652), (294,0.508598), (295,0.413429), (296,0.091593), (297,-0.051879), (298,0.365294), (299,0.217176), (300,0.143377), (301,-0.005668), (302,0.256366), (303,0.108248), (304,0.052565), (305,-0.098804), (306,0.418237), (307,0.278948), (308,0.235337), (309,0.060281), (310,0.411030), (311,0.243407), (312,0.105044), (313,-0.049573), (314,0.329510), (315,0.212049), (316,0.153579), (317,-0.000112), (318,0.287469), (319,0.119376), (320,0.065553), (321,-0.108576), (322,0.425183), (323,0.327696), (324,0.241819), (325,0.076982), (326,0.472791), (327,0.326532), (328,0.157512), (329,0.020540), (330,0.427494), (331,0.279846), (332,0.199078), (333,0.037027), (334,0.280477), (335,0.122146), (336,0.058566), (337,-0.085375), (338,0.447457), (339,0.311418), (340,0.252484), (341,0.105763), (342,0.479273), (343,0.323259), (344,0.334926), (345,0.143151), (346,0.138563), (347,0.430321), (348,0.351877), (349,0.192149), (350,0.449537), (351,0.274475), (352,0.222511), (353,0.041876), (354,0.238419), (355,0.460967), (356,0.400174), (357,0.258098), (358,0.517339), (359,0.444937), (360,0.185806), (361,0.023755), (362,0.426527), (363,0.283055), (364,0.235267), (365,0.096441), (366,0.332927), (367,0.186206), (368,0.120303), (369,-0.011096), (370,0.507341), (371,0.338784), (372,0.282637), (373,0.159603), (374,0.509426), (375,0.329254), (376,0.116572), (377,-0.013425), (378,0.384237), (379,0.253770), (380,0.196697), (381,0.034177), (382,0.305503), (383,0.109076), (384,0.003230), (385,-0.022259), (386,0.191929), (387,0.329938), (388,0.150236), (389,0.086193), (390,0.031906), (391,0.333883), (392,0.078002), (393,0.051585), (394,0.253695), (395,0.279301), (396,0.145578), (397,0.076426), (398,-0.106526), (399,0.180122), (400,0.034791), (401,-0.038075), (402,0.197478), (403,0.357785), (404,0.204094), (405,0.127509), (406,0.068113), (407,0.364053), (408,-0.006554), (409,-0.007429), (410,0.209545), (411,0.230968), (412,0.091216), (413,0.037392), (414,-0.151139), (415,0.146198), (416,-0.033041), (417,-0.092443), (418,0.174700), (419,0.296454), (420,0.109319), (421,0.059678), (422,0.022110), (423,0.319904), (424,0.214058), (425,0.058971), (426,0.375350), (427,0.197507), (428,0.218004), (429,0.073598), (430,0.023494), (431,-0.131130), (432,0.159701), (433,0.032954), (434,0.360016), (435,0.203532), (436,0.330401), (437,0.185070), (438,0.187451), (439,0.039332), (440,0.150867), (441,-0.023726), (442,0.299153), (443,0.138962), (444,0.146910), (445,-0.020713), (446,-0.101481), (447,-0.248203), (448,0.013368), (449,-0.116172), (450,0.214139), (451,0.090178), (452,0.218901), (453,0.136744), (454,0.160489), (455,0.003542), (456,0.283228), (457,0.112348), (458,0.473317), (459,0.309876), (460,0.319684), (461,0.160883), (462,0.075475), (463,-0.089831), (464,0.175453), (465,0.013402), (466,0.359505), (467,0.201174), (468,0.347543), (469,0.200357), (470,0.223170), (471,0.054620), (472,0.053282), (473,-0.105055), (474,0.252663), (475,0.105008), (476,0.125504), (477,-0.037473), (478,-0.076901), (479,-0.252890), (480,0.012394), (481,-0.173808), (482,0.189947), (483,0.026500), (484,0.176588), (485,0.035439), (486,0.060581), (487,-0.086141), (488,0.220483), (489,0.045884), (490,0.409175), (491,0.250381), (492,0.230928), (493,0.058188), (494,-0.007244), (495,-0.140034), (496,0.129426), (497,-0.054452), (498,0.301406), (499,0.156075), (500,0.294090), (501,0.160837), (502,0.193405), (503,0.025782), (504,0.384427), (505,0.228876), (506,0.185735), (507,0.419898), (508,0.460363), (509,0.311318), (510,0.276542), (511,0.081512), (512,0.337966), (513,0.194958), (514,0.134635), (515,0.368328), (516,0.535604), (517,0.367981), (518,0.338772), (519,0.284485), (520,0.376508), (521,0.213061), (522,0.128580), (523,0.398973), (524,0.418079), (525,0.262065), (526,0.238892), (527,0.031326), (528,0.295677), (529,0.138272), (530,0.103954), (531,0.342763), (532,0.482632), (533,0.301533), (534,0.257465), (535,0.195746), (536,0.255258), (537,0.223263), (538,0.081187), (539,0.461661), (540,0.318188), (541,0.255542), (542,0.119503), (543,0.389890), (544,0.255710), (545,0.179588), (546,0.021251), (547,0.549444), (548,0.391106), (549,0.338673), (550,0.154794), (551,0.558029), (552,0.147471), (553,0.086215), (554,0.316665), (555,0.314863), (556,0.180677), (557,0.085514), (558,-0.093725), (559,0.178992), (560,0.015082), (561,-0.047571), (562,0.208427), (563,0.392421), (564,0.223865), (565,0.144957), (566,0.112035), (567,0.374995), (568,0.235243), (569,0.187455), (570,0.048629), (571,0.440718), (572,0.273095), (573,0.231344), (574,0.075799), (575,0.350832), (576,0.211080), (577,0.137745), (578,-0.011764), (579,0.521996), (580,0.346476), (581,0.314944), (582,0.189587), (583,0.559384), (584,0.307216), (585,0.227845), (586,0.062081), (587,0.478785), (588,0.305588), (589,0.279166), (590,0.121761), (591,0.354528), (592,0.225921), (593,0.175811), (594,0.019797), (595,0.547520), (596,0.393829), (597,0.309817), (598,0.163559), (599,0.518485), (600,0.270036), (601,0.221785), (602,0.062521), (603,0.481554), (604,0.320893), (605,0.251741), (606,0.098513), (607,0.361480), (608,0.219398), (609,0.132594), (610,-0.001585), (611,0.534497), (612,0.378019), (613,0.324659), (614,0.174681), (615,0.557021), (616,0.211954), (617,0.130729), (618,0.391367), (619,0.372377), (620,0.192675), (621,0.176941), (622,-0.016700), (623,0.255090), (624,0.061913), (625,0.036886), (626,0.301707), (627,0.457367), (628,0.311578), (629,0.237310), (630,0.200212), (631,0.489646), (632,0.146909), (633,0.111201), (634,0.349077), (635,0.386292), (636,0.223308), (637,0.181563), (638,-0.011144), (639,0.277364), (640,-0.156418), (641,-0.243685), (642,-0.017888), (643,0.138243), (644,-0.006156), (645,-0.044188), (646,-0.090122), (647,0.198856), (648,-0.107194), (649,-0.160555), (650,0.062000), (651,0.096891), (652,-0.086524), (653,-0.151036), (654,-0.322842), (655,-0.045017), (656,-0.213573), (657,-0.220484), (658,0.014612), (659,0.159127), (660,0.017508), (661,-0.053967), (662,-0.135662), (663,0.144024), (664,0.157551), (665,-0.010079), (666,-0.063902), (667,0.145646), (668,0.159636), (669,0.001763), (670,-0.002826), (671,-0.201569), (672,0.072074), (673,-0.064429), (674,-0.117790), (675,0.135415), (676,0.278534), (677,0.124843), (678,0.069159), (679,-0.011602), (680,0.123157), (681,-0.037503), (682,0.320215), (683,0.148872), (684,0.156363), (685,-0.009407), (686,-0.084595), (687,-0.222031), (688,0.058581), (689,-0.088604), (690,0.267718), (691,0.108454), (692,0.209306), (693,0.055615), (694,0.103976), (695,-0.065971), (696,-0.054767), (697,-0.213098), (698,0.146937), (699,-0.016503), (700,0.032791), (701,-0.124157), (702,-0.241618), (703,-0.379511), (704,-0.119806), (705,-0.267455), (706,0.058210), (707,-0.102450), (708,0.037425), (709,-0.091652), (710,-0.049327), (711,-0.221597), (712,0.040437), (713,-0.123936), (714,0.201729), (715,0.048501), (716,0.088972), (717,-0.068439), (718,-0.147810), (719,-0.294995), (720,-0.007414), (721,-0.148569), (722,0.177102), (723,0.008546), (724,0.145165), (725,0.013772), (726,0.070961), (727,-0.118960), (728,0.109161), (729,-0.011087), (730,-0.060264), (731,0.171576), (732,0.186956), (733,0.027692), (734,-0.033564), (735,-0.185859), (736,0.092893), (737,-0.084486), (738,-0.170363), (739,0.094458), (740,0.257087), (741,0.069953), (742,-0.004772), (743,-0.055346), (744,0.177884), (745,0.042308), (746,0.039116), (747,0.256091), (748,0.324426), (749,0.158199), (750,0.090900), (751,-0.079046), (752,0.209462), (753,0.040906), (754,-0.017100), (755,0.206844), (756,0.366224), (757,0.237617), (758,0.176824), (759,0.083514), (760,0.352054), (761,0.186284), (762,0.115272), (763,0.393561), (764,0.397802), (765,0.210198), (766,0.129900), (767,-0.049802), (768,0.241029), (769,0.109166), (770,0.070208), (771,0.308084), (772,0.450276), (773,0.284042), (774,0.225573), (775,0.145275), (776,0.275851), (777,0.102655), (778,0.065550), (779,0.304359), (780,0.334141), (781,0.143757), (782,0.100152), (783,-0.053539), (784,0.231250), (785,0.056657), (786,-0.010172), (787,0.220741), (788,0.388011), (789,0.253831), (790,0.193502), (791,0.129929), (792,0.184325), (793,0.130038), (794,-0.042231), (795,0.380515), (796,0.227287), (797,0.163245), (798,0.016059), (799,0.256259), (800,0.091885), (801,0.026909), (802,-0.104020), (803,0.442751), (804,0.265365), (805,0.211542), (806,0.075039), (807,0.428574), (808,0.145755), (809,0.110047), (810,-0.032035), (811,0.354480), (812,0.211008), (813,0.147435), (814,-0.021121), (815,0.227438), (816,0.068174), (817,0.021783), (818,-0.099398), (819,0.438544), (820,0.228185), (821,0.205482), (822,0.071765), (823,0.435990), (824,0.182895), (825,0.095627), (826,-0.058527), (827,0.372115), (828,0.228179), (829,0.165990), (830,-0.011389), (831,0.259931), (832,0.096491), (833,0.031052), (834,-0.091056), (835,0.426448), (836,0.294592), (837,0.224970), (838,0.105192), (839,0.433180), (840,0.145714), (841,0.104896), (842,-0.078989), (843,0.363732), (844,0.235589), (845,0.186411), (846,0.017855), (847,0.292894), (848,0.093217), (849,0.065405), (850,-0.081787), (851,0.473343), (852,0.323835), (853,0.244464), (854,0.104705), (855,0.496794), (856,0.214438), (857,0.148072), (858,-0.003759), (859,0.343277), (860,0.249040), (861,0.183138), (862,0.020624), (863,0.267323), (864,0.123851), (865,0.061668), (866,-0.060439), (867,0.489581), (868,0.316842), (869,0.234685), (870,0.067061), (871,0.451254), (872,0.116876), (873,0.073272), (874,0.302789), (875,0.313529), (876,0.164014), (877,0.112977), (878,-0.046750), (879,0.224106), (880,0.078775), (881,0.027274), (882,0.268870), (883,0.410598), (884,0.222994), (885,0.149665), (886,0.090262), (887,0.362052), (888,-0.052688), (889,-0.101403), (890,0.176423), (891,0.176481), (892,0.024650), (893,-0.040326), (894,-0.227924), (895,0.039683), (896,-0.028543), (897,-0.083293), (898,-0.230021), (899,0.316750), (900,0.174668), (901,0.128740), (902,-0.020768), (903,0.308147), (904,0.089428), (905,0.006344), (906,-0.117623), (907,0.285618), (908,0.139822), (909,0.056732), (910,-0.092777), (911,0.153929), (912,-0.010445), (913,-0.041977), (914,-0.184053), (915,0.378504), (916,0.188119), (917,0.144515), (918,-0.042157), (919,0.339713), (920,0.201351), (921,0.040227), (922,-0.026602), (923,0.247041), (924,0.273573), (925,0.087372), (926,0.036334), (927,-0.151733), (928,0.102405), (929,-0.038744), (930,-0.120439), (931,0.143449), (932,0.288427), (933,0.123126), (934,0.082308), (935,-0.000313), (936,-0.010010), (937,-0.137691), (938,0.186584), (939,0.058904), (940,0.074284), (941,-0.079870), (942,-0.170850), (943,-0.325474), (944,-0.075050), (945,-0.191121), (946,0.151269), (947,-0.017287), (948,0.131874), (949,-0.026463), (950,0.012611), (951,-0.139684), (952,0.114454), (953,-0.048529), (954,-0.156698), (955,0.103007), (956,0.114680), (957,-0.041797), (958,-0.117456), (959,-0.272073), (960,0.018288), (961,-0.141439), (962,-0.210591), (963,0.032395), (964,0.175050), (965,0.054339), (966,0.003765), (967,-0.072350), (968,0.197573), (969,0.048528), (970,0.027222), (971,0.264635), (972,0.267009), (973,0.104959), (974,0.036270), (975,-0.158297), (976,0.112566), (977,-0.022547), (978,-0.050823), (979,0.139671), (980,0.297661), (981,0.112849), (982,0.065989), (983,-0.010596), (984,0.132059), (985,-0.033705), (986,-0.052695), (987,0.183328), (988,0.164802), (989,0.029226), (990,-0.020415), (991,-0.195941), (992,0.088391), (993,-0.093634), (994,-0.153964), (995,0.078340), (996,0.214958), (997,0.058944), (998,0.006980), (999,-0.031985), (1000,0.240732), (1001,0.063816), (1002,0.003023), (1003,0.247405), (1004,0.274401), (1005,0.126753), (1006,0.064100), (1007,-0.117462), (1008,0.129707), (1009,-0.028161), (1010,-0.066662), (1011,0.160538), (1012,0.340350), (1013,0.177836), (1014,0.150487), (1015,0.077615), (1016,0.250934), (1017,0.089347), (1018,0.036913), (1019,0.283618), (1020,0.279957), (1021,0.138345), (1022,0.057577), (1023,-0.146740), (1024,0.131080), (1025,-0.012856), (1026,-0.075039), (1027,0.164234), (1028,0.288774), (1029,0.152735), (1030,0.097051), (1031,0.054837), (1032,0.206321), (1033,0.060526), (1034,-0.001194), (1035,0.239469), (1036,0.256715), (1037,0.108134), (1038,0.037585), (1039,-0.165342), (1040,0.106905), (1041,-0.034244), (1042,-0.077849), (1043,0.116835), (1044,0.242301), (1045,0.092330), (1046,0.039896), (1047,-0.001849), (1048,0.081352), (1049,0.023809), (1050,-0.129419), (1051,0.272895), (1052,0.131746), (1053,0.027291), (1054,-0.072055), (1055,0.164894), (1056,0.012593), (1057,-0.063528), (1058,-0.200031), (1059,0.331411), (1060,0.189793), (1061,0.135969), (1062,0.001789), (1063,0.350215), (1064,0.144502), (1065,0.121336), (1066,-0.043507), (1067,0.343478), (1068,0.155410), (1069,0.098800), (1070,-0.063713), (1071,0.190418), (1072,0.059025), (1073,-0.003164), (1074,-0.157782), (1075,0.380623), (1076,0.284070), (1077,0.241392), (1078,0.096060), (1079,0.428694), (1080,0.096640), (1081,0.032127), (1082,-0.129923), (1083,0.246374), (1084,0.102902), (1085,0.065803), (1086,-0.092998), (1087,0.131410), (1088,-0.036220), (1089,-0.083538), (1090,-0.229333), (1091,0.326724), (1092,0.144699), (1093,0.074614), (1094,-0.102765), (1095,0.255880), (1096,0.009760), (1097,-0.011553), (1098,-0.149452), (1099,0.296519), (1100,0.141901), (1101,0.066712), (1102,-0.068864), (1103,0.173195), (1104,0.070593), (1105,0.015843), (1106,-0.146207), (1107,0.411703), (1108,0.267768), (1109,0.181897), (1110,-0.013604), (1111,0.358053), (1112,0.121213), (1113,0.026983), (1114,-0.136464), (1115,0.277923), (1116,0.137237), (1117,0.029062), (1118,-0.104654), (1119,0.147161), (1120,0.010658), (1121,-0.051531), (1122,-0.193607), (1123,0.329007), (1124,0.177639), (1125,0.116846), (1126,0.014250), (1127,0.384041), (1128,0.006927), (1129,-0.047823), (1130,0.191913), (1131,0.222158), (1132,0.050822), (1133,0.005357), (1134,-0.176204), (1135,0.082573), (1136,-0.084123), (1137,-0.125868), (1138,0.114331), (1139,0.267205), (1140,0.113978), (1141,0.053654), (1142,-0.030826), (1143,0.251176), (1144,0.093772), (1145,0.025546), (1146,-0.094701), (1147,0.310393), (1148,0.146952), (1149,0.107524), (1150,-0.041521), (1151,0.216794), (1152,-0.080427), (1153,-0.144007), (1154,-0.312557), (1155,0.236068), (1156,0.053579), (1157,0.017864), (1158,-0.117242), (1159,0.237683), (1160,0.079816), (1161,-0.134263), (1162,-0.182977), (1163,0.065588), (1164,0.072609), (1165,-0.076899), (1166,-0.137229), (1167,-0.331333), (1168,-0.066049), (1169,-0.198369), (1170,-0.227115), (1171,0.042815), (1172,0.173861), (1173,0.024346), (1174,-0.023904), (1175,-0.099093), (1176,-0.030288), (1177,-0.179802), (1178,-0.248491), (1179,-0.007359), (1180,0.005241), (1181,-0.176784), (1182,-0.238510), (1183,-0.424248), (1184,-0.150605), (1185,-0.305686), (1186,-0.367876), (1187,-0.134176), (1188,0.022881), (1189,-0.116414), (1190,-0.145154), (1191,-0.189691), (1192,-0.063292), (1193,-0.209550), (1194,0.113328), (1195,-0.068690), (1196,-0.054700), (1197,-0.194922), (1198,-0.272434), (1199,-0.414979), (1200,-0.151092), (1201,-0.298277), (1202,0.047363), (1203,-0.089604), (1204,0.040046), (1205,-0.147552), (1206,-0.149817), (1207,-0.303045), (1208,-0.023366), (1209,-0.184489), (1210,-0.247136), (1211,-0.000900), (1212,0.004267), (1213,-0.128522), (1214,-0.197211), (1215,-0.316989), (1216,-0.026164), (1217,-0.211439), (1218,-0.261543), (1219,-0.020880), (1220,0.124098), (1221,-0.048172), (1222,-0.077381), (1223,-0.148856), (1224,0.094600), (1225,-0.072567), (1226,-0.118494), (1227,0.069220), (1228,0.060918), (1229,-0.075121), (1230,-0.127091), (1231,-0.293325), (1232,-0.016425), (1233,-0.169653), (1234,-0.191430), (1235,0.042270), (1236,0.206296), (1237,0.125529), (1238,0.055443), (1239,-0.026251), (1240,0.006324), (1241,-0.162696), (1242,-0.252286), (1243,0.029716), (1244,0.026525), (1245,-0.097442), (1246,-0.164735), (1247,-0.356516), (1248,-0.067544), (1249,-0.262105), (1250,-0.337300), (1251,-0.101277), (1252,0.041841), (1253,-0.134148), (1254,-0.138266), (1255,-0.255727), (1256,0.051823), (1257,-0.129739), (1258,-0.151509), (1259,0.118414), (1260,0.135661), (1261,-0.033359), (1262,-0.058385), (1263,-0.252026), (1264,0.024873), (1265,-0.165981), (1266,-0.217018), (1267,0.030151), (1268,0.202536), (1269,0.029340), (1270,-0.004515), (1271,-0.100605), (1272,0.140058), (1273,-0.035931), (1274,-0.104620), (1275,0.129543), (1276,0.148643), (1277,-0.006438), (1278,-0.035647), (1279,-0.220922), (1280,0.026246), (1281,-0.138127), (1282,-0.177092), (1283,0.086338), (1284,0.230383), (1285,0.076692), (1286,-0.007319), (1287,-0.071368), (1288,0.094981), (1289,-0.056387), (1290,-0.119039), (1291,0.139745), (1292,0.150949), (1293,-0.039436), (1294,-0.058889), (1295,-0.264602), (1296,-0.027653), (1297,-0.173448), (1298,-0.239350), (1299,-0.001937), (1300,0.139791), (1301,0.004215), (1302,-0.039859), (1303,-0.110865), (1304,0.120505), (1305,0.086657), (1306,-0.079113), (1307,-0.052581), (1308,0.197374), (1309,0.142160), (1310,-0.020823), (1311,0.261186), (1312,0.051290), (1313,0.014185), (1314,-0.161804), (1315,-0.026112), (1316,0.190863), (1317,0.122174), (1318,-0.031517), (1319,0.230053), (1320,-0.075527), (1321,-0.136783), (1322,-0.289548), (1323,0.095578), (1324,-0.026066), (1325,-0.106834), (1326,-0.215002), (1327,0.045635), (1328,-0.076002), (1329,-0.128436), (1330,-0.285840), (1331,0.259534), (1332,0.089118), (1333,0.005101), (1334,-0.172278), (1335,0.192410), (1336,-0.090416), (1337,-0.118692), (1338,-0.271920), (1339,0.159192), (1340,-0.007505), (1341,-0.065975), (1342,-0.208520), (1343,0.023784), (1344,-0.108536), (1345,-0.134496), (1346,-0.306765), (1347,0.240933), (1348,0.108606), (1349,0.078007), (1350,-0.104018), (1351,0.239299), (1352,0.047524), (1353,-0.014665), (1354,-0.145595), (1355,0.228379), (1356,0.036598), (1357,-0.024659), (1358,-0.199251), (1359,0.023303), (1360,-0.137357), (1361,-0.162847), (1362,-0.313288), (1363,0.224654), (1364,0.132277), (1365,0.076130), (1366,-0.093353), (1367,0.262043), (1368,0.121820), (1369,0.072643), (1370,-0.067116), (1371,-0.056839), (1372,0.168495), (1373,0.129073), (1374,-0.018118), (1375,0.241593), (1376,0.044702), (1377,-0.017481), (1378,-0.185574), (1379,-0.046168), (1380,0.206110), (1381,0.184803), (1382,0.014850), (1383,0.278744), (1384,0.002888), (1385,-0.154517), (1386,0.224567), (1387,0.074589), (1388,0.074647), (1389,-0.099013), (1390,-0.194646), (1391,-0.341368), (1392,-0.037994), (1393,-0.213983), (1394,0.084281), (1395,-0.064301), (1396,0.093220), (1397,-0.031211), (1398,-0.042768), (1399,-0.196453), (1400,-0.042652), (1401,-0.084867), (1402,-0.251093), (1403,0.188371), (1404,0.061161), (1405,-0.001492), (1406,-0.137068), (1407,0.080840), (1408,-0.037554), (1409,-0.204251), (1410,-0.248782), (1411,-0.003010), (1412,0.141505), (1413,-0.033551), (1414,-0.079015), (1415,-0.163033), (1416,-0.044066), (1417,-0.194507), (1418,-0.239971), (1419,0.006271), (1420,0.030943), (1421,-0.126924), (1422,-0.185857), (1423,-0.362773), (1424,-0.057546), (1425,-0.226566), (1426,-0.251129), (1427,-0.024398), (1428,0.107574), (1429,-0.031251), (1430,-0.077179), (1431,-0.150978), (1432,0.027914), (1433,-0.120204), (1434,-0.151737), (1435,0.094042), (1436,0.093167), (1437,-0.082352), (1438,-0.125963), (1439,-0.316811), (1440,-0.058033), (1441,-0.189426), (1442,-0.227921), (1443,0.031326), (1444,0.180944), (1445,0.027723), (1446,-0.043289), (1447,-0.103619), (1448,-0.406413), (1449,-0.134623), (1450,0.109752), (1451,0.050819), (1452,-0.095903), (1453,-0.081449), (1454,-0.281589), (1455,-0.368856), (1456,-0.542053), (1457,-0.265623), (1458,-0.057008), (1459,-0.067632), (1460,-0.212964), (1461,-0.053584), (1462,-0.119950), (1463,-0.174706), (1464,-0.327471), (1465,-0.028274), (1466,-0.200549), (1467,0.107007), (1468,-0.033679), (1469,-0.002500), (1470,-0.152478), (1471,-0.227203), (1472,-0.354883), (1473,-0.092850), (1474,-0.275808), (1475,0.093526), (1476,-0.096395), (1477,0.052296), (1478,-0.089316), (1479,-0.058137), (1480,-0.237376), (1481,0.033017), (1482,-0.164337), (1483,0.208710), (1484,0.074994), (1485,0.122428), (1486,-0.056347), (1487,-0.139902), (1488,-0.277331), (1489,0.004671), (1490,-0.154129), (1491,0.189187), (1492,0.009022), (1493,0.184194), (1494,0.048154), (1495,0.070974), (1496,-0.281989), (1497,-0.018565), (1498,-0.195011), (1499,0.175243), (1500,0.018302), (1501,0.053664), (1502,-0.120002), (1503,-0.206343), (1504,-0.322871), (1505,-0.044581), (1506,-0.187590), (1507,0.121356), (1508,-0.015153), (1509,0.091742), (1510,-0.047554), (1511,-0.013589), (1512,-0.175176), (1513,0.126338), (1514,-0.023634), (1515,0.298781), (1516,0.109324), (1517,0.126100), (1518,-0.032700), (1519,-0.115321), (1520,-0.268549), (1521,0.006027), (1522,-0.128622), (1523,0.243498), (1524,0.084228), (1525,0.247327), (1526,0.078771), (1527,0.147569), (1528,-0.137103), (1529,0.127247), (1530,-0.042699), (1531,0.302014), (1532,0.134384), (1533,0.157204), (1534,0.015591), (1535,-0.108376), (1536,-0.235123), (1537,0.035270), (1538,-0.107738), (1539,0.264839), (1540,0.113008), (1541,0.274711), (1542,0.072248), (1543,0.115035), (1544,-0.195191), (1545,0.067776), (1546,-0.125865), (1547,0.245786), (1548,0.114392), (1549,0.106091), (1550,-0.059679), (1551,-0.182713), (1552,-0.308070), (1553,-0.015385), (1554,-0.165357), (1555,0.160308), (1556,0.008014), (1557,0.150669), (1558,0.028561), (1559,0.061136), (1560,0.281361), (1561,0.146255), (1562,0.079419), (1563,-0.059407), (1564,0.301098), (1565,0.140908), (1566,0.070822), (1567,-0.075436), (1568,0.196817), (1569,0.009682), (1570,-0.053434), (1571,-0.221990), (1572,0.328494), (1573,0.169230), (1574,0.152100), (1575,-0.003451), (1576,0.209810), (1577,0.053796), (1578,-0.015819), (1579,0.252714), (1580,0.242090), (1581,0.080033), (1582,-0.002125), (1583,-0.153956), (1584,0.108541), (1585,-0.047473), (1586,-0.092937), (1587,0.138903), (1588,0.271339), (1589,0.123227), (1590,0.095878), (1591,0.000245), (1592,0.114102), (1593,-0.041912), (1594,-0.099449), (1595,0.180700), (1596,0.227671), (1597,0.065614), (1598,-0.018867), (1599,-0.228293), (1600,0.061605), (1601,-0.100909), (1602,-0.137087), (1603,0.078035), (1604,0.235555), (1605,0.079077), (1606,-0.030024), (1607,-0.095927), (1608,0.098293), (1609,-0.025210), (1610,-0.080888), (1611,0.158849), (1612,0.156114), (1613,0.034013), (1614,-0.013775), (1615,-0.212988), (1616,0.065301), (1617,-0.124157), (1618,-0.154292), (1619,0.071048), (1620,0.257829), (1621,0.086950), (1622,0.045668), (1623,-0.038813), (1624,0.259915), (1625,0.092291), (1626,0.052863), (1627,-0.087822), (1628,0.321455), (1629,0.188202), (1630,0.119513), (1631,-0.021173), (1632,0.245507), (1633,0.078811), (1634,0.049138), (1635,-0.108736), (1636,0.422243), (1637,0.269016), (1638,0.214259), (1639,0.049422), (1640,0.036938), (1641,-0.082846), (1642,0.237246), (1643,0.090524), (1644,0.087332), (1645,-0.084943), (1646,-0.182430), (1647,-0.351449), (1648,-0.066654), (1649,-0.201767), (1650,0.179176), (1651,0.025022), (1652,0.169536), (1653,0.036283), (1654,0.065602), (1655,-0.089485), (1656,0.154897), (1657,-0.005757), (1658,-0.054478), (1659,0.192691), (1660,0.227119), (1661,-0.009714), (1662,-0.054715), (1663,-0.217229), (1664,-0.105694), (1665,-0.256129), (1666,-0.316459), (1667,-0.086478), (1668,0.076151), (1669,-0.069644), (1670,-0.135546), (1671,-0.189833), (1672,-0.008162), (1673,-0.193900), (1674,-0.247260), (1675,0.013377), (1676,0.045952), (1677,-0.117495), (1678,-0.205695), (1679,-0.323619), (1680,-0.090383), (1681,-0.259403), (1682,-0.327628), (1683,-0.080459), (1684,0.080774), (1685,-0.090562), (1686,-0.135563), (1687,-0.208435), (1688,-0.450378), (1689,-0.157687), (1690,-0.284904), (1691,0.073741), (1692,-0.114784), (1693,-0.130987), (1694,-0.267490), (1695,-0.334789), (1696,-0.482901), (1697,-0.191606), (1698,-0.353663), (1699,-0.018705), (1700,-0.242533), (1701,-0.087800), (1702,-0.229412), (1703,-0.179655), (1704,-0.368186), (1705,-0.090360), (1706,-0.256593), (1707,0.116917), (1708,-0.029805), (1709,-0.000016), (1710,-0.189944), (1711,-0.272565), (1712,-0.431829), (1713,-0.153540), (1714,-0.286793), (1715,0.046305), (1716,-0.120855), (1717,0.014367), (1718,-0.174157), (1719,-0.123937), (1720,-0.442060), (1721,-0.157265), (1722,-0.310492), (1723,0.042580), (1724,-0.093459), (1725,-0.072963), (1726,-0.222008), (1727,-0.365480), (1728,-0.446248), (1729,-0.181897), (1730,-0.356490), (1731,-0.010844), (1732,-0.121805), (1733,0.041758), (1734,-0.107294), (1735,-0.086334), (1736,-0.303193), (1737,-0.054634), (1738,-0.188814), (1739,0.160539), (1740,0.030542), (1741,-0.012599), (1742,-0.181619), (1743,-0.226157), (1744,-0.403536), (1745,-0.123387), (1746,-0.258499), (1747,0.058806), (1748,-0.101384), (1749,0.069605), (1750,-0.074794), (1751,-0.025970), (1752,-0.452320), (1753,-0.209327), (1754,-0.359769), (1755,-0.014129), (1756,-0.143669), (1757,-0.137568), (1758,-0.256426), (1759,-0.342766), (1760,-0.500634), (1761,-0.217698), (1762,-0.368140), (1763,0.001651), (1764,-0.169685), (1765,-0.052578), (1766,-0.209519), (1767,-0.175554), (1768,-0.332501), (1769,-0.091368), (1770,-0.239487), (1771,0.085715), (1772,-0.096310), (1773,-0.074418), (1774,-0.180733), (1775,-0.245702), (1776,-0.394284), (1777,-0.132720), (1778,-0.272472), (1779,0.070844), (1780,-0.068915), (1781,0.101611), (1782,-0.081804), (1783,-0.060381), (1784,-0.216859), (1785,0.084655), (1786,-0.103406), (1787,