Version 4
SHEET 1 880 680
WIRE -240 -208 -320 -208
WIRE -224 -208 -240 -208
WIRE 176 -208 -144 -208
WIRE -144 -144 -144 -208
WIRE -144 0 -144 -64
FLAG -144 0 0
FLAG 176 -208 out
IOPIN 176 -208 Out
FLAG -320 -208 in
IOPIN -320 -208 In
FLAG -240 -208 in
SYMBOL bv -144 -160 R0
SYMATTR InstName B1
SYMATTR Value V=delay(V(in), t)
TEXT -136 -240 Left 2 !.param t = 10n
