Version 4
SHEET 1 880 680
WIRE -400 -208 -480 -208
WIRE -384 -208 -400 -208
WIRE -240 -208 -288 -208
WIRE -224 -208 -240 -208
WIRE 176 -208 -144 -208
WIRE -384 -160 -416 -160
WIRE -144 -144 -144 -208
WIRE -416 -128 -416 -160
WIRE -384 -128 -416 -128
WIRE -416 -96 -416 -128
WIRE -144 0 -144 -64
FLAG -144 0 0
FLAG 176 -208 out
IOPIN 176 -208 Out
FLAG -480 -208 in
IOPIN -480 -208 In
FLAG -400 -208 in
FLAG -240 -208 en
FLAG -416 -96 0
SYMBOL bv -144 -160 R0
SYMATTR InstName B1
SYMATTR Value V=if(V(en), delay(V(in), t), 0)
SYMBOL Digital\\srflop -336 -256 R0
SYMATTR InstName A1
TEXT -136 -240 Left 2 !.param t = 10n
