Version 4
SHEET 1 1320 680
WIRE 784 -128 416 -128
WIRE 416 -64 416 -128
WIRE -96 80 -320 80
WIRE 416 80 416 16
WIRE -96 112 -160 112
WIRE 144 128 80 128
WIRE 208 128 144 128
WIRE 784 128 416 128
WIRE -96 144 -288 144
WIRE -160 176 -160 112
WIRE 416 224 416 128
WIRE -96 256 -96 208
WIRE 416 368 416 304
FLAG 144 128 samples
FLAG -288 144 SCLK
IOPIN -288 144 In
FLAG 416 368 0
FLAG -320 80 In
IOPIN -320 80 In
FLAG 784 128 codes
IOPIN 784 128 Out
FLAG 784 -128 signal
IOPIN 784 -128 Out
FLAG -96 256 0
FLAG -160 176 0
FLAG 416 80 0
SYMBOL SpecialFunctions\\sample -16 112 R0
SYMATTR InstName A1
SYMBOL bv 416 208 R0
SYMATTR InstName B1
SYMATTR Value V=limit(0, int((1+V(samples))*MS), FS)
SYMBOL bv 416 -80 R0
SYMATTR InstName B2
SYMATTR Value V= (V(codes) - MS) * LSB + smallsig() * V(In)
TEXT -64 -112 Left 2 !.param bits = 16\n.param MS = 2**(bits-1)\n.param FS = 2**bits -1\n.param LSB = 2/2**bits
