Version 4
SHEET 1 1580 680
WIRE 96 112 -32 112
WIRE 240 112 96 112
WIRE 240 144 192 144
WIRE 640 160 416 160
WIRE 0 176 -16 176
WIRE 64 176 0 176
WIRE 240 176 128 176
WIRE 640 192 592 192
WIRE 864 208 816 208
WIRE 960 208 864 208
WIRE 1104 208 1056 208
WIRE 1152 208 1104 208
WIRE 1312 208 1200 208
WIRE 64 224 64 192
WIRE 640 224 512 224
WIRE 960 256 912 256
WIRE 1200 256 1200 208
WIRE 192 272 192 144
WIRE 912 288 912 256
WIRE 960 288 912 288
WIRE 592 320 592 192
WIRE 0 336 0 176
WIRE 512 336 512 224
WIRE 512 336 0 336
WIRE 912 336 912 288
WIRE 1200 384 1200 336
FLAG 192 272 0
FLAG -16 176 SCLK
IOPIN -16 176 In
FLAG -32 112 Din
IOPIN -32 112 In
FLAG 592 320 0
FLAG 1312 208 Dout
IOPIN 1312 208 Out
FLAG 64 224 0
FLAG 912 336 0
FLAG 1104 208 started
FLAG 864 208 last
FLAG 1200 384 0
FLAG 96 112 in
SYMBOL SpecialFunctions\\sample 320 144 R0
WINDOW 39 -77 117 Left 2
WINDOW 40 -77 145 Left 2
SYMATTR SpiceLine Vhigh = {2**20}
SYMATTR SpiceLine2 Vlow = 0
SYMATTR InstName A1
SYMBOL SpecialFunctions\\sample 720 192 R0
WINDOW 39 -77 117 Left 2
WINDOW 40 -77 145 Left 2
SYMATTR SpiceLine Vhigh = {2**20}
SYMATTR SpiceLine2 Vlow = 0
SYMATTR InstName A2
SYMBOL Digital\\inv 64 112 R0
SYMATTR InstName A3
SYMBOL Digital\\srflop 1008 160 R0
SYMATTR InstName A4
SYMBOL bv 1200 240 R0
SYMATTR InstName B1
SYMATTR Value V=if(V(started), V(last), V(in))
