Version 4
SHEET 1 1124 680
WIRE 240 112 -32 112
WIRE 240 144 192 144
WIRE 640 160 416 160
WIRE 0 176 -16 176
WIRE 64 176 0 176
WIRE 240 176 128 176
WIRE 640 192 592 192
WIRE 960 208 816 208
WIRE 64 224 64 192
WIRE 640 224 512 224
WIRE 192 272 192 144
WIRE 592 320 592 192
WIRE 0 336 0 176
WIRE 512 336 512 224
WIRE 512 336 0 336
FLAG 192 272 0
FLAG -16 176 SCLK
IOPIN -16 176 In
FLAG -32 112 Din
IOPIN -32 112 In
FLAG 592 320 0
FLAG 960 208 Dout
IOPIN 960 208 Out
FLAG 64 224 0
SYMBOL SpecialFunctions\\sample 320 144 R0
WINDOW 39 -77 117 Left 2
WINDOW 40 -77 145 Left 2
SYMATTR SpiceLine Vhigh = {2**20}
SYMATTR SpiceLine2 Vlow = 0
SYMATTR InstName A1
SYMBOL SpecialFunctions\\sample 720 192 R0
WINDOW 39 -77 117 Left 2
WINDOW 40 -77 145 Left 2
SYMATTR SpiceLine Vhigh = {2**20}
SYMATTR SpiceLine2 Vlow = 0
SYMATTR InstName A2
SYMBOL Digital\\inv 64 112 R0
SYMATTR InstName A3
